@<TRIPOS>MOLECULE
generated by VMD
   73   80    1    0    0
SMALL
USER_CHARGES
HEM
Energy = 0

@<TRIPOS>ATOM
      1  NC         2.9473   -0.9705   -0.7332   nc    1  HEM         0.006600
      2  C1C        4.2831   -0.7541   -0.5186   cc    1  HEM        -0.019200
      3  C4C        2.7979   -2.2836   -1.0574   cc    1  HEM        -0.019300
      4  C2C        5.0266   -1.9868   -0.7004   cc    1  HEM         0.011400
      5  C3C        4.0991   -2.9551   -1.0469   cc    1  HEM        -0.035700
      6  CHD        1.5782   -2.8910   -1.3960   cg    1  HEM        -0.148200
      7  HHD        1.6157   -3.9439   -1.6571   ha    1  HEM         0.109400
      8  C1D        0.3211   -2.2874   -1.4844   cd    1  HEM         0.009500
      9  ND         0.0575   -0.9755   -1.2063   nd    1  HEM        -0.271400
     10  C4D       -1.2715   -0.7740   -1.4639   cd    1  HEM         0.094800
     11  C3D       -1.8979   -2.0262   -1.9023   cd    1  HEM        -0.024800
     12  C2D       -0.8965   -2.9648   -1.9150   cd    1  HEM         0.061700
     13  CHA       -1.9250    0.4577   -1.3510   cg    1  HEM        -0.195200
     14  HHA       -2.9879    0.4604   -1.5694   ha    1  HEM         0.198600
     15  C1A       -1.3606    1.6899   -0.9986   cc    1  HEM         0.003600
     16  C2A       -2.0741    2.9696   -0.9787   cc    1  HEM        -0.011500
     17  C4A        0.1236    3.2164   -0.4578   cc    1  HEM        -0.047000
     18  NA        -0.0488    1.8753   -0.6690   nc    1  HEM         0.000500
     19  C3A       -1.1416    3.9169   -0.6402   cc    1  HEM         0.045700
     20  CHB        1.3393    3.8318   -0.1572   cg    1  HEM        -0.142800
     21  HHB        1.2998    4.9068   -0.0051   ha    1  HEM         0.129900
     22  C1B        2.6064    3.2352   -0.0578   cd    1  HEM         0.013700
     23  C2B        3.8441    3.9507    0.1878   cd    1  HEM         0.087600
     24  NB         2.8530    1.8984   -0.2088   nd    1  HEM        -0.246900
     25  C4B        4.1980    1.7188   -0.0853   cd    1  HEM         0.060500
     26  CHC        4.8515    0.4861   -0.2022   cg    1  HEM        -0.160500
     27  HHC        5.9274    0.4945   -0.0557   ha    1  HEM         0.121900
     28  FE         1.3405    0.3518   -0.1226   fe    1  HEM         0.249200
     29  C3B        4.8534    3.0010    0.1781   cd    1  HEM        -0.022100
     30  CAB        6.2883    3.1745    0.3338   cc    1  HEM        -0.082300
     31  HAB        6.8968    2.3737   -0.0900   ha    1  HEM         0.093700
     32  CBB        6.9517    4.1838    0.9280   cd    1  HEM        -0.401600
     33 HBB1        6.4492    5.0087    1.4226   ha    1  HEM         0.139600
     34 HBB2        8.0387    4.1901    0.9587   ha    1  HEM         0.139600
     35  CAC        4.2947   -4.3690   -1.3260   cd    1  HEM        -0.030400
     36  HAC        3.4039   -4.9873   -1.2095   ha    1  HEM         0.108200
     37  CBC        5.4211   -5.0015   -1.7046   cc    1  HEM        -0.440100
     38 HBC1        6.3561   -4.4822   -1.8919   ha    1  HEM         0.142900
     39 HBC2        5.4255   -6.0775   -1.8620   ha    1  HEM         0.142900
     40  CMB        3.9805    5.4337    0.3561   c3    1  HEM        -0.130400
     41 HMB1        3.9843    5.7355    1.4141   hc    1  HEM         0.034900
     42 HMB2        4.9183    5.7941   -0.0828   hc    1  HEM         0.034900
     43 HMB3        3.1562    5.9704   -0.1258   hc    1  HEM         0.034900
     44  CMC        6.5036   -2.1553   -0.5048   c3    1  HEM        -0.106200
     45 HMC1        6.7308   -3.1423   -0.0839   hc    1  HEM         0.036300
     46 HMC2        7.0660   -2.0739   -1.4476   hc    1  HEM         0.036300
     47 HMC3        6.9080   -1.4002    0.1784   hc    1  HEM         0.036300
     48  CMD       -0.9908   -4.4148   -2.2862   c3    1  HEM        -0.214300
     49 HMD1       -0.2666   -4.6834   -3.0682   hc    1  HEM         0.058800
     50 HMD2       -0.7876   -5.0688   -1.4263   hc    1  HEM         0.058800
     51 HMD3       -1.9887   -4.6662   -2.6584   hc    1  HEM         0.058800
     52  CMA       -1.3442    5.3958   -0.4851   c3    1  HEM        -0.149700
     53 HMA1       -1.2604    5.7128    0.5639   hc    1  HEM         0.043400
     54 HMA2       -0.5983    5.9702   -1.0520   hc    1  HEM         0.043400
     55 HMA3       -2.3353    5.6985   -0.8382   hc    1  HEM         0.043400
     56  CAA       -3.5341    3.2031   -1.2573   c3    1  HEM        -0.069100
     57 HAA1       -3.7214    4.2753   -1.3900   hc    1  HEM         0.027600
     58 HAA2       -3.8274    2.7387   -2.2046   hc    1  HEM         0.027600
     59  CAD       -3.3557   -2.2417   -2.1999   c3    1  HEM        -0.064200
     60 HAD1       -3.7539   -1.4187   -2.8052   hc    1  HEM         0.034100
     61 HAD2       -3.4984   -3.1443   -2.8049   hc    1  HEM         0.034100
     62  CBA       -4.4618    2.6749   -0.1412   c3    1  HEM         0.011600
     63 HBA1       -4.0931    2.9901    0.8441   h1    1  HEM        -0.010100
     64 HBA2       -4.4516    1.5768   -0.1256   h1    1  HEM        -0.010100
     65  CBD       -4.2035   -2.3532   -0.9143   c3    1  HEM        -0.003400
     66 HBD1       -4.4252   -1.3509   -0.5347   h1    1  HEM         0.016400
     67 HBD2       -3.6275   -2.8571   -0.1249   h1    1  HEM         0.016400
     68  CGD       -5.5329   -3.0991   -1.0885    c    1  HEM         0.584800
     69  CGA       -5.9020    3.1605   -0.2756    c    1  HEM         0.658200
     70  O1A       -6.3358    4.0068    0.5629    o    1  HEM        -0.642700
     71  O1D       -5.8352   -3.9532   -0.2020    o    1  HEM        -0.579100
     72  O2A       -6.6441    2.7583   -1.2086    o    1  HEM        -0.642700
     73  O2D       -6.2559   -2.8750   -2.0918    o    1  HEM        -0.579100
@<TRIPOS>BOND
    1     1     2  1
    2     1     3  1
    3     1    28  1
    4     2     4  1
    5     2    26  1
    6     3     5  1
    7     3     6  1
    8     4     5  1
    9     4    44  1
   10     5    35  1
   11     6     7  1
   12     6     8  1
   13     8     9  1
   14     8    12  1
   15     9    10  1
   16     9    28  1
   17    10    11  1
   18    10    13  1
   19    11    12  1
   20    11    59  1
   21    12    48  1
   22    13    14  1
   23    13    15  1
   24    15    16  1
   25    15    18  1
   26    16    19  1
   27    16    56  1
   28    17    18  1
   29    17    19  1
   30    17    20  1
   31    18    28  1
   32    19    52  1
   33    20    21  1
   34    20    22  1
   35    22    23  1
   36    22    24  1
   37    23    29  1
   38    23    40  1
   39    24    25  1
   40    24    28  1
   41    25    26  1
   42    25    29  1
   43    26    27  1
   44    29    30  1
   45    30    31  1
   46    30    32  1
   47    32    33  1
   48    32    34  1
   49    35    36  1
   50    35    37  1
   51    37    38  1
   52    37    39  1
   53    40    41  1
   54    40    42  1
   55    40    43  1
   56    44    45  1
   57    44    46  1
   58    44    47  1
   59    48    49  1
   60    48    50  1
   61    48    51  1
   62    52    53  1
   63    52    54  1
   64    52    55  1
   65    56    57  1
   66    56    58  1
   67    56    62  1
   68    59    60  1
   69    59    61  1
   70    59    65  1
   71    62    63  1
   72    62    64  1
   73    62    69  1
   74    65    66  1
   75    65    67  1
   76    65    68  1
   77    68    71  1
   78    68    73  1
   79    69    70  1
   80    69    72  1

@<TRIPOS>SUBSTRUCTURE
1             HEM                     1 ****   0 **** ****
